opendss_networks/LV26_205bus/Groundings.dss
new reactor.tx_busgrounding_B1337 phases=1 bus1=B1337.4 bus2=B1337.0 r=0.3 x=0.0
new reactor.loadbusgrounding_B1598 phases=1 bus1=B1598.4 bus2=B1598.0 r=10.0 x=0.0
new reactor.loadbusgrounding_B2212 phases=1 bus1=B2212.4 bus2=B2212.0 r=10.0 x=0.0
new reactor.loadbusgrounding_B842 phases=1 bus1=B842.4 bus2=B842.0 r=10.0 x=0.0
new reactor.loadbusgrounding_B7 phases=1 bus1=B7.4 bus2=B7.0 r=10.0 x=0.0
new reactor.loadbusgrounding_B599 phases=1 bus1=B599.4 bus2=B599.0 r=10.0 x=0.0
new reactor.loadbusgrounding_B3092 phases=1 bus1=B3092.4 bus2=B3092.0 r=10.0 x=0.0
new reactor.loadbusgrounding_B845 phases=1 bus1=B845.4 bus2=B845.0 r=10.0 x=0.0
new reactor.loadbusgrounding_B2180 phases=1 bus1=B2180.4 bus2=B2180.0 r=10.0 x=0.0
new reactor.loadbusgrounding_B2184 phases=1 bus1=B2184.4 bus2=B2184.0 r=10.0 x=0.0
new reactor.loadbusgrounding_B1781 phases=1 bus1=B1781.4 bus2=B1781.0 r=10.0 x=0.0
new reactor.loadbusgrounding_B1018 phases=1 bus1=B1018.4 bus2=B1018.0 r=10.0 x=0.0
new reactor.loadbusgrounding_B2294 phases=1 bus1=B2294.4 bus2=B2294.0 r=10.0 x=0.0
new reactor.loadbusgrounding_B1380 phases=1 bus1=B1380.4 bus2=B1380.0 r=10.0 x=0.0
new reactor.loadbusgrounding_B203 phases=1 bus1=B203.4 bus2=B203.0 r=10.0 x=0.0
new reactor.loadbusgrounding_B2293 phases=1 bus1=B2293.4 bus2=B2293.0 r=10.0 x=0.0
new reactor.loadbusgrounding_B1281 phases=1 bus1=B1281.4 bus2=B1281.0 r=10.0 x=0.0
new reactor.loadbusgrounding_B98 phases=1 bus1=B98.4 bus2=B98.0 r=10.0 x=0.0
new reactor.loadbusgrounding_B600 phases=1 bus1=B600.4 bus2=B600.0 r=10.0 x=0.0
new reactor.loadbusgrounding_B37 phases=1 bus1=B37.4 bus2=B37.0 r=10.0 x=0.0
new reactor.loadbusgrounding_B2288 phases=1 bus1=B2288.4 bus2=B2288.0 r=10.0 x=0.0
new reactor.loadbusgrounding_B709 phases=1 bus1=B709.4 bus2=B709.0 r=10.0 x=0.0
new reactor.loadbusgrounding_B2693 phases=1 bus1=B2693.4 bus2=B2693.0 r=10.0 x=0.0
new reactor.loadbusgrounding_B64 phases=1 bus1=B64.4 bus2=B64.0 r=10.0 x=0.0
new reactor.loadbusgrounding_B501 phases=1 bus1=B501.4 bus2=B501.0 r=10.0 x=0.0
new reactor.loadbusgrounding_B272 phases=1 bus1=B272.4 bus2=B272.0 r=10.0 x=0.0
new reactor.loadbusgrounding_B984 phases=1 bus1=B984.4 bus2=B984.0 r=10.0 x=0.0
new reactor.loadbusgrounding_B636 phases=1 bus1=B636.4 bus2=B636.0 r=10.0 x=0.0
new reactor.loadbusgrounding_B2676 phases=1 bus1=B2676.4 bus2=B2676.0 r=10.0 x=0.0
new reactor.loadbusgrounding_B1169 phases=1 bus1=B1169.4 bus2=B1169.0 r=10.0 x=0.0
new reactor.loadbusgrounding_B51 phases=1 bus1=B51.4 bus2=B51.0 r=10.0 x=0.0
new reactor.loadbusgrounding_B1293 phases=1 bus1=B1293.4 bus2=B1293.0 r=10.0 x=0.0
new reactor.loadbusgrounding_B2104 phases=1 bus1=B2104.4 bus2=B2104.0 r=10.0 x=0.0
new reactor.loadbusgrounding_B3326 phases=1 bus1=B3326.4 bus2=B3326.0 r=10.0 x=0.0
new reactor.loadbusgrounding_B2986 phases=1 bus1=B2986.4 bus2=B2986.0 r=10.0 x=0.0
new reactor.loadbusgrounding_B156 phases=1 bus1=B156.4 bus2=B156.0 r=10.0 x=0.0
new reactor.loadbusgrounding_B746 phases=1 bus1=B746.4 bus2=B746.0 r=10.0 x=0.0
new reactor.loadbusgrounding_B3308 phases=1 bus1=B3308.4 bus2=B3308.0 r=10.0 x=0.0
new reactor.loadbusgrounding_B998 phases=1 bus1=B998.4 bus2=B998.0 r=10.0 x=0.0
new reactor.loadbusgrounding_B1550 phases=1 bus1=B1550.4 bus2=B1550.0 r=10.0 x=0.0
new reactor.loadbusgrounding_B2513 phases=1 bus1=B2513.4 bus2=B2513.0 r=10.0 x=0.0
new reactor.loadbusgrounding_B2354 phases=1 bus1=B2354.4 bus2=B2354.0 r=10.0 x=0.0
new reactor.loadbusgrounding_B196 phases=1 bus1=B196.4 bus2=B196.0 r=10.0 x=0.0
new reactor.loadbusgrounding_B3100 phases=1 bus1=B3100.4 bus2=B3100.0 r=10.0 x=0.0
new reactor.loadbusgrounding_B1418 phases=1 bus1=B1418.4 bus2=B1418.0 r=10.0 x=0.0
new reactor.loadbusgrounding_B1455 phases=1 bus1=B1455.4 bus2=B1455.0 r=10.0 x=0.0
new reactor.loadbusgrounding_B39 phases=1 bus1=B39.4 bus2=B39.0 r=10.0 x=0.0
new reactor.loadbusgrounding_B69 phases=1 bus1=B69.4 bus2=B69.0 r=10.0 x=0.0
new reactor.loadbusgrounding_B1406 phases=1 bus1=B1406.4 bus2=B1406.0 r=10.0 x=0.0
new reactor.loadbusgrounding_B1236 phases=1 bus1=B1236.4 bus2=B1236.0 r=10.0 x=0.0
new reactor.loadbusgrounding_B3402 phases=1 bus1=B3402.4 bus2=B3402.0 r=10.0 x=0.0
new reactor.loadbusgrounding_B2103 phases=1 bus1=B2103.4 bus2=B2103.0 r=10.0 x=0.0
new reactor.loadbusgrounding_B2697 phases=1 bus1=B2697.4 bus2=B2697.0 r=10.0 x=0.0
new reactor.loadbusgrounding_B229 phases=1 bus1=B229.4 bus2=B229.0 r=10.0 x=0.0
new reactor.loadbusgrounding_B1864 phases=1 bus1=B1864.4 bus2=B1864.0 r=10.0 x=0.0
new reactor.loadbusgrounding_B942 phases=1 bus1=B942.4 bus2=B942.0 r=10.0 x=0.0
new reactor.loadbusgrounding_B1457 phases=1 bus1=B1457.4 bus2=B1457.0 r=10.0 x=0.0
new reactor.loadbusgrounding_B2081 phases=1 bus1=B2081.4 bus2=B2081.0 r=10.0 x=0.0
new reactor.loadbusgrounding_B1208 phases=1 bus1=B1208.4 bus2=B1208.0 r=10.0 x=0.0
new reactor.loadbusgrounding_B505 phases=1 bus1=B505.4 bus2=B505.0 r=10.0 x=0.0
new reactor.loadbusgrounding_B3371 phases=1 bus1=B3371.4 bus2=B3371.0 r=10.0 x=0.0
new reactor.loadbusgrounding_B1152 phases=1 bus1=B1152.4 bus2=B1152.0 r=10.0 x=0.0
new reactor.loadbusgrounding_B3165 phases=1 bus1=B3165.4 bus2=B3165.0 r=10.0 x=0.0
new reactor.loadbusgrounding_B1375 phases=1 bus1=B1375.4 bus2=B1375.0 r=10.0 x=0.0
new reactor.loadbusgrounding_B1668 phases=1 bus1=B1668.4 bus2=B1668.0 r=10.0 x=0.0
new reactor.loadbusgrounding_B679 phases=1 bus1=B679.4 bus2=B679.0 r=10.0 x=0.0
new reactor.loadbusgrounding_B2385 phases=1 bus1=B2385.4 bus2=B2385.0 r=10.0 x=0.0
new reactor.loadbusgrounding_B2037 phases=1 bus1=B2037.4 bus2=B2037.0 r=10.0 x=0.0
new reactor.loadbusgrounding_B2996 phases=1 bus1=B2996.4 bus2=B2996.0 r=10.0 x=0.0
new reactor.loadbusgrounding_B745 phases=1 bus1=B745.4 bus2=B745.0 r=10.0 x=0.0
new reactor.loadbusgrounding_B3084 phases=1 bus1=B3084.4 bus2=B3084.0 r=10.0 x=0.0
new reactor.loadbusgrounding_B3324 phases=1 bus1=B3324.4 bus2=B3324.0 r=10.0 x=0.0
new reactor.loadbusgrounding_B3137 phases=1 bus1=B3137.4 bus2=B3137.0 r=10.0 x=0.0
new reactor.loadbusgrounding_B1474 phases=1 bus1=B1474.4 bus2=B1474.0 r=10.0 x=0.0
new reactor.loadbusgrounding_B1831 phases=1 bus1=B1831.4 bus2=B1831.0 r=10.0 x=0.0
new reactor.loadbusgrounding_B1658 phases=1 bus1=B1658.4 bus2=B1658.0 r=10.0 x=0.0
new reactor.loadbusgrounding_B3356 phases=1 bus1=B3356.4 bus2=B3356.0 r=10.0 x=0.0
new reactor.loadbusgrounding_B371 phases=1 bus1=B371.4 bus2=B371.0 r=10.0 x=0.0
new reactor.loadbusgrounding_B2741 phases=1 bus1=B2741.4 bus2=B2741.0 r=10.0 x=0.0
new reactor.loadbusgrounding_B110 phases=1 bus1=B110.4 bus2=B110.0 r=10.0 x=0.0
new reactor.loadbusgrounding_B729 phases=1 bus1=B729.4 bus2=B729.0 r=10.0 x=0.0
new reactor.loadbusgrounding_B2572 phases=1 bus1=B2572.4 bus2=B2572.0 r=10.0 x=0.0
new reactor.loadbusgrounding_B981 phases=1 bus1=B981.4 bus2=B981.0 r=10.0 x=0.0
new reactor.loadbusgrounding_B1318 phases=1 bus1=B1318.4 bus2=B1318.0 r=10.0 x=0.0
new reactor.loadbusgrounding_B2310 phases=1 bus1=B2310.4 bus2=B2310.0 r=10.0 x=0.0
new reactor.loadbusgrounding_B2631 phases=1 bus1=B2631.4 bus2=B2631.0 r=10.0 x=0.0
new reactor.loadbusgrounding_B1928 phases=1 bus1=B1928.4 bus2=B1928.0 r=10.0 x=0.0
new reactor.loadbusgrounding_B3221 phases=1 bus1=B3221.4 bus2=B3221.0 r=10.0 x=0.0
new reactor.loadbusgrounding_B717 phases=1 bus1=B717.4 bus2=B717.0 r=10.0 x=0.0
new reactor.loadbusgrounding_B3251 phases=1 bus1=B3251.4 bus2=B3251.0 r=10.0 x=0.0
new reactor.loadbusgrounding_B5 phases=1 bus1=B5.4 bus2=B5.0 r=10.0 x=0.0
new reactor.loadbusgrounding_B3067 phases=1 bus1=B3067.4 bus2=B3067.0 r=10.0 x=0.0
new reactor.loadbusgrounding_B1509 phases=1 bus1=B1509.4 bus2=B1509.0 r=10.0 x=0.0
new reactor.loadbusgrounding_B697 phases=1 bus1=B697.4 bus2=B697.0 r=10.0 x=0.0
new reactor.loadbusgrounding_B2587 phases=1 bus1=B2587.4 bus2=B2587.0 r=10.0 x=0.0
